Version 4
SHEET 1 1516 1204
WIRE -224 32 -368 32
WIRE 32 32 -224 32
WIRE 512 32 384 32
WIRE 592 32 512 32
WIRE 928 32 592 32
WIRE 1024 32 928 32
WIRE 384 64 384 32
WIRE -224 80 -224 32
WIRE -368 112 -368 32
WIRE 32 112 32 32
WIRE 592 112 592 32
WIRE 1024 112 1024 32
WIRE 928 128 928 32
WIRE 544 144 384 144
WIRE -224 176 -224 160
WIRE -80 176 -224 176
WIRE -16 176 -80 176
WIRE 384 192 384 144
WIRE 592 208 592 176
WIRE -368 224 -368 192
WIRE -144 224 -288 224
WIRE 336 224 288 224
WIRE -224 272 -224 176
WIRE -80 272 -80 176
WIRE 384 272 384 256
WIRE 528 272 384 272
WIRE 32 288 32 208
WIRE 64 288 32 288
WIRE 144 288 128 288
WIRE 160 288 144 288
WIRE 256 288 224 288
WIRE 288 288 288 224
WIRE 288 288 256 288
WIRE 736 288 592 288
WIRE 784 288 736 288
WIRE 928 288 928 192
WIRE 928 288 880 288
WIRE 1024 288 1024 192
WIRE 1024 288 928 288
WIRE 512 304 512 32
WIRE 512 304 384 304
WIRE -576 320 -608 320
WIRE -464 320 -576 320
WIRE -352 320 -400 320
WIRE -288 320 -288 224
WIRE -288 320 -352 320
WIRE -272 320 -288 320
WIRE -144 320 -144 224
WIRE -128 320 -144 320
WIRE 384 320 384 304
WIRE 736 336 736 288
WIRE 32 352 32 288
WIRE 144 352 144 288
WIRE 288 352 288 288
WIRE 336 352 288 352
WIRE -576 368 -576 320
WIRE -352 368 -352 320
WIRE 256 368 256 288
WIRE 1024 368 1024 288
WIRE 928 384 928 288
WIRE 592 400 592 368
WIRE -256 432 -256 368
WIRE -160 432 -256 432
WIRE -112 432 -112 368
WIRE -112 432 -160 432
WIRE 384 432 384 384
WIRE 544 432 384 432
WIRE -160 448 -160 432
WIRE 736 448 736 416
WIRE 784 448 736 448
WIRE -160 512 -256 512
WIRE -576 544 -576 448
WIRE -352 544 -352 448
WIRE -352 544 -576 544
WIRE -256 544 -256 512
WIRE -256 544 -352 544
WIRE 32 544 32 432
WIRE 32 544 -256 544
WIRE 144 544 144 432
WIRE 144 544 32 544
WIRE 384 544 384 512
WIRE 384 544 144 544
WIRE 528 544 528 272
WIRE 528 544 384 544
WIRE 592 544 592 464
WIRE 592 544 528 544
WIRE 928 544 928 448
WIRE 928 544 592 544
WIRE 1024 544 1024 448
WIRE 1024 544 928 544
WIRE 256 592 256 448
WIRE 736 592 736 448
WIRE 736 592 256 592
WIRE 880 592 880 288
WIRE 880 592 736 592
WIRE 144 624 144 544
FLAG -608 320 IN
IOPIN -608 320 In
FLAG 784 288 OUT+
IOPIN 784 288 Out
FLAG 144 624 0
FLAG -368 224 0
FLAG 784 448 OUT-
IOPIN 784 448 Out
SYMBOL MyTubeModel/E88CC -224 320 R0
SYMATTR InstName U1
SYMBOL res -240 64 R0
SYMATTR InstName R2
SYMATTR Value 15k
SYMBOL res -272 416 R0
SYMATTR InstName R3
SYMATTR Value 510
SYMBOL polcap -176 448 R0
SYMATTR InstName C2
SYMATTR Value 470µ
SYMBOL cap -400 304 R90
WINDOW 0 0 32 VBottom 2
WINDOW 3 32 32 VTop 2
SYMATTR InstName C1
SYMATTR Value 0.1µ
SYMBOL res 128 336 R0
SYMATTR InstName R5
SYMATTR Value 100k
SYMBOL voltage -576 352 R0
SYMATTR InstName V2
SYMATTR Value SINE(0 0.25 1k)
SYMBOL res -368 352 R0
SYMATTR InstName R1
SYMATTR Value 470k
SYMBOL res 576 192 R0
SYMATTR InstName R8
SYMATTR Value 0.2
SYMBOL res 576 272 R0
SYMATTR InstName R9
SYMATTR Value 0.2
SYMBOL res 368 48 R0
SYMATTR InstName R6
SYMATTR Value 240
SYMBOL res 368 416 R0
SYMATTR InstName R7
SYMATTR Value 240
SYMBOL voltage 1024 352 R0
SYMATTR InstName V3
SYMATTR Value 6
SYMBOL voltage 1024 96 R0
SYMATTR InstName V4
SYMATTR Value 6
SYMBOL polcap 912 128 R0
SYMATTR InstName C5
SYMATTR Value 1000µ
SYMBOL polcap 912 384 R0
SYMATTR InstName C6
SYMATTR Value 1000µ
SYMBOL res 720 320 R0
SYMATTR InstName SPEAKER
SYMATTR Value 8
SYMBOL voltage -368 96 R0
SYMATTR InstName V1
SYMATTR Value 30
SYMBOL njf -16 112 R0
SYMATTR InstName J1
SYMATTR Value J211
SYMBOL res 16 336 R0
SYMATTR InstName R4
SYMATTR Value 10k
SYMBOL MyTubeModel/E88CC -80 320 R0
SYMATTR InstName U4
SYMBOL TTA008B 352 240 M180
SYMATTR InstName U5
SYMBOL TTA008B 560 448 M180
SYMATTR InstName U6
SYMBOL TTC015B 352 336 R0
SYMATTR InstName U7
SYMBOL TTC015B 560 128 R0
SYMATTR InstName U8
SYMBOL polcap 64 304 R270
WINDOW 0 32 32 VTop 2
WINDOW 3 0 32 VBottom 2
SYMATTR InstName C4
SYMATTR Value 10µ
SYMBOL cap 224 272 R90
WINDOW 0 0 32 VBottom 2
WINDOW 3 32 32 VTop 2
SYMATTR InstName C3
SYMATTR Value 0.1µ
SYMBOL res 240 352 R0
SYMATTR InstName R10
SYMATTR Value 470k
TEXT -560 184 Left 2 !.tran 5m
