Version 4
SHEET 1 1532 1140
WIRE 16 32 -112 32
WIRE 176 32 16 32
WIRE 608 32 480 32
WIRE 976 32 608 32
WIRE 1120 32 976 32
WIRE 480 64 480 32
WIRE -112 80 -112 32
WIRE 16 80 16 32
WIRE 608 80 608 32
WIRE 176 144 176 32
WIRE 976 144 976 32
WIRE 480 160 480 144
WIRE 560 160 480 160
WIRE 1120 160 1120 32
WIRE 480 192 480 160
WIRE 608 192 608 176
WIRE 16 208 16 160
WIRE 128 208 16 208
WIRE -112 224 -112 160
WIRE 16 272 16 208
WIRE 176 288 176 240
WIRE 208 288 176 288
WIRE 288 288 272 288
WIRE 304 288 288 288
WIRE 384 288 368 288
WIRE 480 288 480 272
WIRE 480 288 384 288
WIRE 608 288 608 272
WIRE 752 288 608 288
WIRE 800 288 752 288
WIRE 976 288 976 208
WIRE 976 288 944 288
WIRE 1120 288 1120 240
WIRE 1120 288 976 288
WIRE 480 304 480 288
WIRE 608 304 608 288
WIRE -352 320 -384 320
WIRE -208 320 -352 320
WIRE -112 320 -144 320
WIRE -32 320 -112 320
WIRE 976 336 976 288
WIRE 1120 336 1120 288
WIRE 752 352 752 288
WIRE -352 368 -352 320
WIRE -112 368 -112 320
WIRE 176 368 176 288
WIRE 288 368 288 288
WIRE 384 368 384 288
WIRE 608 400 608 384
WIRE 480 416 480 384
WIRE 560 416 480 416
WIRE -16 432 -16 368
WIRE 80 432 -16 432
WIRE 480 432 480 416
WIRE 80 448 80 432
WIRE 752 464 752 432
WIRE 800 464 752 464
WIRE 80 512 -16 512
WIRE -352 544 -352 448
WIRE -112 544 -112 448
WIRE -112 544 -352 544
WIRE -16 544 -16 512
WIRE -16 544 -112 544
WIRE 176 544 176 448
WIRE 176 544 -16 544
WIRE 288 544 288 448
WIRE 288 544 176 544
WIRE 480 544 480 512
WIRE 480 544 288 544
WIRE 608 544 608 496
WIRE 608 544 480 544
WIRE 976 544 976 400
WIRE 976 544 608 544
WIRE 1120 544 1120 416
WIRE 1120 544 976 544
WIRE 176 576 176 544
WIRE 384 576 384 448
WIRE 752 576 752 464
WIRE 752 576 384 576
WIRE 944 576 944 288
WIRE 944 576 752 576
FLAG -384 320 IN
IOPIN -384 320 In
FLAG 800 288 OUT+
IOPIN 800 288 Out
FLAG 176 576 0
FLAG 800 464 OUT-
IOPIN 800 464 Out
FLAG -112 224 0
SYMBOL res 0 64 R0
SYMATTR InstName R1
SYMATTR Value 33k
SYMBOL res -32 416 R0
SYMATTR InstName R2
SYMATTR Value 750
SYMBOL polcap 64 448 R0
SYMATTR InstName C1
SYMATTR Value 640u
SYMBOL cap -144 304 R90
WINDOW 0 0 32 VBottom 2
WINDOW 3 32 32 VTop 2
SYMATTR InstName C2
SYMATTR Value 0.1u
SYMBOL voltage -352 352 R0
SYMATTR InstName V2
SYMATTR Value SINE(0 0.4 1k)
SYMBOL res -128 352 R0
SYMATTR InstName R4
SYMATTR Value 470k
SYMBOL MyTubeModel/12AU7 16 320 R0
SYMATTR InstName U1
SYMBOL cap 368 272 R90
WINDOW 0 0 32 VBottom 2
WINDOW 3 32 32 VTop 2
SYMATTR InstName C4
SYMATTR Value 0.1u
SYMBOL res 368 352 R0
SYMATTR InstName R5
SYMATTR Value 470k
SYMBOL voltage 1120 144 R0
SYMATTR InstName V4
SYMATTR Value 6
SYMBOL res 736 336 R0
WINDOW 0 30 31 Left 2
SYMATTR InstName SPEAKER1
SYMATTR Value 8
SYMBOL njf 128 144 R0
SYMATTR InstName J1
SYMATTR Value J211
SYMBOL res 160 352 R0
SYMATTR InstName R3
SYMATTR Value 10k
SYMBOL polcap 960 144 R0
SYMATTR InstName C3
SYMATTR Value 1000u
SYMBOL polcap 960 336 R0
SYMATTR InstName C6
SYMATTR Value 1000u
SYMBOL res 592 176 R0
SYMATTR InstName R6
SYMATTR Value 0.2
SYMBOL res 592 288 R0
SYMATTR InstName R7
SYMATTR Value 0.2
SYMBOL res 464 48 R0
SYMATTR InstName R8
SYMATTR Value 20k
SYMBOL res 464 176 R0
SYMATTR InstName R9
SYMATTR Value 3k
SYMBOL res 464 416 R0
SYMATTR InstName R14
SYMATTR Value 20k
SYMBOL res 464 288 R0
SYMATTR InstName R15
SYMATTR Value 3k
SYMBOL nmos 560 80 R0
SYMATTR InstName M1
SYMATTR Value 2SK1056C
SYMBOL pmos 560 496 M180
SYMATTR InstName M2
SYMATTR Value 2SJ162C
SYMBOL voltage 1120 320 R0
SYMATTR InstName V1
SYMATTR Value 6
SYMBOL voltage -112 64 R0
SYMATTR InstName V3
SYMATTR Value 30
SYMBOL polcap 208 304 R270
WINDOW 0 32 32 VTop 2
WINDOW 3 0 32 VBottom 2
SYMATTR InstName C5
SYMATTR Value 10u
SYMBOL res 272 352 R0
SYMATTR InstName R10
SYMATTR Value 100k
TEXT -320 184 Left 2 !.tran 5m
