Version 4
SHEET 1 1620 1008
WIRE 224 -128 112 -128
WIRE 368 -128 224 -128
WIRE 800 -128 672 -128
WIRE 880 -128 800 -128
WIRE 1248 -128 880 -128
WIRE 1392 -128 1248 -128
WIRE 672 -112 672 -128
WIRE 112 -96 112 -128
WIRE 224 -80 224 -128
WIRE 880 -64 880 -128
WIRE 368 -32 368 -128
WIRE 832 -32 672 -32
WIRE 1392 -16 1392 -128
WIRE 1248 0 1248 -128
WIRE 672 16 672 -32
WIRE 112 32 112 -16
WIRE 224 32 224 0
WIRE 320 32 224 32
WIRE 880 32 880 0
WIRE 624 48 592 48
WIRE 224 80 224 32
WIRE 672 96 672 80
WIRE 816 96 672 96
WIRE 368 112 368 64
WIRE 384 112 368 112
WIRE 464 112 448 112
WIRE 480 112 464 112
WIRE 560 112 544 112
WIRE 592 112 592 48
WIRE 592 112 560 112
WIRE 1024 112 880 112
WIRE 1056 112 1024 112
WIRE 1248 112 1248 64
WIRE 1248 112 1184 112
WIRE 1392 112 1392 64
WIRE 1392 112 1248 112
WIRE -144 128 -176 128
WIRE 0 128 -144 128
WIRE 96 128 64 128
WIRE 176 128 96 128
WIRE 800 128 800 -128
WIRE 800 128 672 128
WIRE 672 144 672 128
WIRE 1024 144 1024 112
WIRE 368 160 368 112
WIRE 464 160 464 112
WIRE 1392 160 1392 112
WIRE -144 176 -144 128
WIRE 96 176 96 128
WIRE 592 176 592 112
WIRE 624 176 592 176
WIRE 1248 176 1248 112
WIRE 560 192 560 112
WIRE 880 224 880 192
WIRE 192 240 192 176
WIRE 288 240 192 240
WIRE 288 256 288 240
WIRE 672 256 672 208
WIRE 832 256 672 256
WIRE 1024 304 1024 224
WIRE 1056 304 1024 304
WIRE 288 320 192 320
WIRE -144 352 -144 256
WIRE 96 352 96 256
WIRE 96 352 -144 352
WIRE 192 352 192 320
WIRE 192 352 96 352
WIRE 368 352 368 240
WIRE 368 352 192 352
WIRE 464 352 464 240
WIRE 464 352 368 352
WIRE 672 352 672 336
WIRE 672 352 464 352
WIRE 816 352 816 96
WIRE 816 352 672 352
WIRE 880 352 880 288
WIRE 880 352 816 352
WIRE 1248 352 1248 240
WIRE 1248 352 880 352
WIRE 1392 352 1392 240
WIRE 1392 352 1248 352
WIRE 560 384 560 272
WIRE 1024 384 1024 304
WIRE 1024 384 560 384
WIRE 1184 384 1184 112
WIRE 1184 384 1024 384
WIRE 368 416 368 352
FLAG 368 416 0
FLAG -176 128 IN
IOPIN -176 128 In
FLAG 1056 112 OUT+
IOPIN 1056 112 Out
FLAG 1056 304 OUT-
IOPIN 1056 304 Out
FLAG 112 32 0
SYMBOL res 208 -96 R0
SYMATTR InstName R1
SYMATTR Value 330k
SYMBOL res 176 224 R0
SYMATTR InstName R2
SYMATTR Value 12k
SYMBOL polcap 272 256 R0
SYMATTR InstName C1
SYMATTR Value 470u
SYMBOL cap 64 112 R90
WINDOW 0 0 32 VBottom 2
WINDOW 3 32 32 VTop 2
SYMATTR InstName C2
SYMATTR Value 0.1u
SYMBOL res 544 176 R0
SYMATTR InstName R3
SYMATTR Value 470k
SYMBOL voltage -144 160 R0
SYMATTR InstName V2
SYMATTR Value SINE(0 0.3 1k)
SYMBOL res 80 160 R0
SYMATTR InstName R4
SYMATTR Value 470k
SYMBOL njf 320 -32 R0
SYMATTR InstName J1
SYMATTR Value J211
SYMBOL res 352 144 R0
SYMATTR InstName R5
SYMATTR Value 10k
SYMBOL voltage 1392 -32 R0
SYMATTR InstName V3
SYMATTR Value 6
SYMBOL voltage 1392 144 R0
SYMATTR InstName V4
SYMATTR Value 6
SYMBOL res 1008 128 R0
SYMATTR InstName SPEAKER1
SYMATTR Value 8
SYMBOL polcap 1232 0 R0
SYMATTR InstName C3
SYMATTR Value 1000u
SYMBOL polcap 1232 176 R0
SYMATTR InstName C6
SYMATTR Value 1000u
SYMBOL cap 544 96 R90
WINDOW 0 0 32 VBottom 2
WINDOW 3 32 32 VTop 2
SYMATTR InstName C4
SYMATTR Value 0.1u
SYMBOL res 864 16 R0
SYMATTR InstName R6
SYMATTR Value 0.2
SYMBOL res 864 96 R0
SYMATTR InstName R7
SYMATTR Value 0.2
SYMBOL res 656 -128 R0
SYMATTR InstName R8
SYMATTR Value 240
SYMBOL res 656 240 R0
SYMATTR InstName R9
SYMATTR Value 240
SYMBOL voltage 112 -112 R0
SYMATTR InstName V1
SYMATTR Value 30
SYMBOL TTC015B 848 -48 R0
SYMATTR InstName U4
SYMBOL TTA008B 848 272 M180
WINDOW 0 43 49 Left 2
SYMATTR InstName U5
SYMBOL TTA008B 640 64 M180
WINDOW 0 43 49 Left 2
SYMATTR InstName U6
SYMBOL TTC015B 640 160 R0
SYMATTR InstName U7
SYMBOL polcap 384 128 R270
WINDOW 0 32 32 VTop 2
WINDOW 3 0 32 VBottom 2
SYMATTR InstName C5
SYMATTR Value 10u
SYMBOL res 448 144 R0
SYMATTR InstName R10
SYMATTR Value 100k
SYMBOL MyTubeModel\\6AK5_TOSHIBA 224 128 R0
SYMATTR InstName U1
TEXT -112 -8 Left 2 !.tran 5m
