Version 4
SHEET 1 1620 1008
WIRE 240 -128 96 -128
WIRE 384 -128 240 -128
WIRE 848 -128 720 -128
WIRE 1232 -128 848 -128
WIRE 1376 -128 1232 -128
WIRE 720 -112 720 -128
WIRE 96 -96 96 -128
WIRE 848 -96 848 -128
WIRE 240 -80 240 -128
WIRE 384 -32 384 -128
WIRE 720 -16 720 -32
WIRE 800 -16 720 -16
WIRE 1376 -16 1376 -128
WIRE 1232 0 1232 -128
WIRE 720 16 720 -16
WIRE 848 16 848 0
WIRE 96 32 96 -16
WIRE 240 32 240 0
WIRE 336 32 240 32
WIRE 240 80 240 32
WIRE 384 112 384 64
WIRE 432 112 384 112
WIRE 512 112 496 112
WIRE 528 112 512 112
WIRE 624 112 592 112
WIRE 720 112 720 96
WIRE 720 112 624 112
WIRE 848 112 848 96
WIRE 976 112 848 112
WIRE 1008 112 976 112
WIRE 1232 112 1232 64
WIRE 1232 112 1168 112
WIRE 1376 112 1376 64
WIRE 1376 112 1232 112
WIRE -128 128 -160 128
WIRE 16 128 -128 128
WIRE 112 128 80 128
WIRE 192 128 112 128
WIRE 720 128 720 112
WIRE 848 128 848 112
WIRE 976 144 976 112
WIRE 384 160 384 112
WIRE 512 160 512 112
WIRE 624 160 624 112
WIRE 1376 160 1376 112
WIRE -128 176 -128 128
WIRE 112 176 112 128
WIRE 1232 176 1232 112
WIRE 848 224 848 208
WIRE 208 240 208 176
WIRE 304 240 208 240
WIRE 720 240 720 208
WIRE 800 240 720 240
WIRE 304 256 304 240
WIRE 720 256 720 240
WIRE 976 304 976 224
WIRE 1008 304 976 304
WIRE 304 320 208 320
WIRE -128 352 -128 256
WIRE 112 352 112 256
WIRE 112 352 -128 352
WIRE 208 352 208 320
WIRE 208 352 112 352
WIRE 384 352 384 240
WIRE 384 352 208 352
WIRE 512 352 512 240
WIRE 512 352 384 352
WIRE 720 352 720 336
WIRE 720 352 512 352
WIRE 848 352 848 320
WIRE 848 352 720 352
WIRE 1232 352 1232 240
WIRE 1232 352 848 352
WIRE 1376 352 1376 240
WIRE 1376 352 1232 352
WIRE 624 384 624 240
WIRE 976 384 976 304
WIRE 976 384 624 384
WIRE 1168 384 1168 112
WIRE 1168 384 976 384
WIRE 384 416 384 352
FLAG 384 416 0
FLAG -160 128 IN
IOPIN -160 128 In
FLAG 1008 112 OUT+
IOPIN 1008 112 Out
FLAG 1008 304 OUT-
IOPIN 1008 304 Out
FLAG 96 32 0
SYMBOL res 224 -96 R0
SYMATTR InstName R1
SYMATTR Value 330k
SYMBOL res 192 224 R0
SYMATTR InstName R2
SYMATTR Value 12k
SYMBOL polcap 288 256 R0
SYMATTR InstName C1
SYMATTR Value 470u
SYMBOL cap 80 112 R90
WINDOW 0 0 32 VBottom 2
WINDOW 3 32 32 VTop 2
SYMATTR InstName C2
SYMATTR Value 0.1u
SYMBOL res 608 144 R0
SYMATTR InstName R3
SYMATTR Value 470k
SYMBOL voltage -128 160 R0
SYMATTR InstName V2
SYMATTR Value SINE(0 0.3 1k)
SYMBOL res 96 160 R0
SYMATTR InstName R4
SYMATTR Value 470k
SYMBOL MyTubeModel/WE403A 240 128 R0
SYMATTR InstName U1
SYMBOL njf 336 -32 R0
SYMATTR InstName J1
SYMATTR Value J211
SYMBOL res 368 144 R0
SYMATTR InstName R5
SYMATTR Value 10k
SYMBOL res 832 0 R0
SYMATTR InstName R6
SYMATTR Value 0.2
SYMBOL res 832 112 R0
SYMATTR InstName R7
SYMATTR Value 0.2
SYMBOL res 704 -128 R0
SYMATTR InstName R8
SYMATTR Value 20k
SYMBOL res 704 0 R0
SYMATTR InstName R9
SYMATTR Value 3k
SYMBOL res 704 240 R0
SYMATTR InstName R10
SYMATTR Value 20k
SYMBOL voltage 1376 -32 R0
SYMATTR InstName V3
SYMATTR Value 6
SYMBOL voltage 1376 144 R0
SYMATTR InstName V4
SYMATTR Value 6
SYMBOL res 704 112 R0
SYMATTR InstName R12
SYMATTR Value 3k
SYMBOL nmos 800 -96 R0
SYMATTR InstName M1
SYMATTR Value 2SK1056C
SYMBOL pmos 800 320 M180
SYMATTR InstName M2
SYMATTR Value 2SJ162C
SYMBOL res 960 128 R0
SYMATTR InstName SPEAKER
SYMATTR Value 8
SYMBOL polcap 1216 0 R0
SYMATTR InstName C3
SYMATTR Value 1000u
SYMBOL polcap 1216 176 R0
SYMATTR InstName C6
SYMATTR Value 1000u
SYMBOL cap 592 96 R90
WINDOW 0 0 32 VBottom 2
WINDOW 3 32 32 VTop 2
SYMATTR InstName C4
SYMATTR Value 0.1u
SYMBOL voltage 96 -112 R0
SYMATTR InstName V1
SYMATTR Value 30
SYMBOL polcap 432 128 R270
WINDOW 0 32 32 VTop 2
WINDOW 3 0 32 VBottom 2
SYMATTR InstName C5
SYMATTR Value 10u
SYMBOL res 496 144 R0
SYMATTR InstName R11
SYMATTR Value 100k
TEXT -96 -8 Left 2 !.tran 5m
