Version 4
SHEET 1 1068 924
WIRE -48 64 -144 64
WIRE 224 64 80 64
WIRE 656 64 224 64
WIRE -144 96 -144 64
WIRE -48 96 -48 64
WIRE 80 96 80 64
WIRE 304 128 176 128
WIRE 224 176 224 64
WIRE -48 192 -48 176
WIRE -16 192 -48 192
WIRE 176 192 176 128
WIRE 192 192 176 192
WIRE -144 208 -144 176
WIRE -16 208 -16 192
WIRE 304 208 304 128
WIRE 304 208 256 208
WIRE 352 208 304 208
WIRE 432 208 416 208
WIRE 528 208 432 208
WIRE 576 208 528 208
WIRE 80 224 80 176
WIRE 192 224 80 224
WIRE 656 240 656 64
WIRE 80 272 80 224
WIRE 432 288 432 208
WIRE -288 320 -304 320
WIRE -160 320 -288 320
WIRE -16 320 -16 288
WIRE -16 320 -96 320
WIRE 32 320 -16 320
WIRE 528 336 528 208
WIRE -288 352 -288 320
WIRE -48 368 -48 192
WIRE -288 496 -288 432
WIRE -48 496 -48 448
WIRE -48 496 -288 496
WIRE 48 496 48 368
WIRE 48 496 -48 496
WIRE 224 496 224 240
WIRE 224 496 48 496
WIRE 432 496 432 368
WIRE 432 496 224 496
WIRE 496 496 432 496
WIRE 528 496 528 416
WIRE 528 496 496 496
WIRE 656 496 656 320
WIRE 656 496 528 496
WIRE 496 528 496 496
FLAG 496 528 0
FLAG 576 208 OUT
IOPIN 576 208 Out
FLAG -304 320 IN
IOPIN -304 320 In
FLAG -144 208 0
SYMBOL voltage -144 80 R0
SYMATTR InstName V2
SYMATTR Value 3.3
SYMBOL polcap -96 304 R90
WINDOW 0 0 32 VBottom 2
WINDOW 3 32 32 VTop 2
SYMATTR InstName C1
SYMATTR Value 10u
SYMBOL res -64 80 R0
SYMATTR InstName R2
SYMATTR Value 1k
SYMBOL res -64 352 R0
SYMATTR InstName R3
SYMATTR Value 2.3k
SYMBOL res 64 80 R0
SYMATTR InstName R4
SYMATTR Value 330k
SYMBOL res 512 320 R0
SYMATTR InstName HEADPHONE
SYMATTR Value 32
SYMBOL voltage -288 336 R0
SYMATTR InstName V3
SYMATTR Value SINE(0 0.14 1k)
SYMBOL voltage 656 224 R0
SYMATTR InstName V1
SYMATTR Value 18
SYMBOL KORG/Nutube 80 320 R0
SYMATTR InstName U1
SYMBOL NJR_OPamp/njm4558single 224 144 R0
SYMATTR InstName U2
SYMBOL res -32 192 R0
SYMATTR InstName R6
SYMATTR Value 33k
SYMBOL res 416 272 R0
SYMATTR InstName R7
SYMATTR Value 10k
SYMBOL polcap 352 224 R270
WINDOW 0 32 32 VTop 2
WINDOW 3 0 32 VBottom 2
SYMATTR InstName C2
SYMATTR Value 470u
TEXT -280 248 Left 2 !.tran 5m
