Version 4
SHEET 1 1604 1172
WIRE 48 32 -80 32
WIRE 176 32 48 32
WIRE 608 32 512 32
WIRE 688 32 608 32
WIRE 1056 32 688 32
WIRE 1184 32 1056 32
WIRE 512 64 512 32
WIRE -80 80 -80 32
WIRE 48 80 48 32
WIRE 688 112 688 32
WIRE 176 144 176 32
WIRE 640 144 512 144
WIRE 1056 144 1056 32
WIRE 1184 144 1184 32
WIRE 512 192 512 144
WIRE 48 208 48 160
WIRE 128 208 48 208
WIRE 688 208 688 176
WIRE -80 224 -80 160
WIRE 464 224 416 224
WIRE 48 272 48 208
WIRE 512 272 512 256
WIRE 624 272 512 272
WIRE 176 288 176 240
WIRE 192 288 176 288
WIRE 272 288 256 288
WIRE 288 288 272 288
WIRE 368 288 352 288
WIRE 416 288 416 224
WIRE 416 288 368 288
WIRE 832 288 688 288
WIRE 880 288 832 288
WIRE 1056 288 1056 208
WIRE 1056 288 1008 288
WIRE 1184 288 1184 224
WIRE 1184 288 1056 288
WIRE 608 304 608 32
WIRE 608 304 512 304
WIRE -320 320 -352 320
WIRE -176 320 -320 320
WIRE -80 320 -112 320
WIRE 0 320 -80 320
WIRE 512 320 512 304
WIRE 832 320 832 288
WIRE 1056 336 1056 288
WIRE 1184 336 1184 288
WIRE 416 352 416 288
WIRE 464 352 416 352
WIRE -320 368 -320 320
WIRE -80 368 -80 320
WIRE 176 368 176 288
WIRE 272 368 272 288
WIRE 368 368 368 288
WIRE 688 400 688 368
WIRE 16 432 16 368
WIRE 112 432 16 432
WIRE 512 432 512 384
WIRE 640 432 512 432
WIRE 832 432 832 400
WIRE 880 432 832 432
WIRE 112 448 112 432
WIRE 112 512 16 512
WIRE -320 544 -320 448
WIRE -80 544 -80 448
WIRE -80 544 -320 544
WIRE 16 544 16 512
WIRE 16 544 -80 544
WIRE 176 544 176 448
WIRE 176 544 16 544
WIRE 272 544 272 448
WIRE 272 544 176 544
WIRE 512 544 512 512
WIRE 512 544 272 544
WIRE 624 544 624 272
WIRE 624 544 512 544
WIRE 688 544 688 464
WIRE 688 544 624 544
WIRE 1056 544 1056 400
WIRE 1056 544 688 544
WIRE 1184 544 1184 416
WIRE 1184 544 1056 544
WIRE 368 576 368 448
WIRE 832 576 832 432
WIRE 832 576 368 576
WIRE 1008 576 1008 288
WIRE 1008 576 832 576
WIRE 272 608 272 544
FLAG -352 320 IN
IOPIN -352 320 In
FLAG 880 288 OUT+
IOPIN 880 288 Out
FLAG 272 608 0
FLAG 880 432 OUT-
IOPIN 880 432 Out
FLAG -80 224 0
SYMBOL res 32 64 R0
SYMATTR InstName R1
SYMATTR Value 33k
SYMBOL res 0 416 R0
SYMATTR InstName R2
SYMATTR Value 750
SYMBOL polcap 96 448 R0
SYMATTR InstName C1
SYMATTR Value 470u
SYMBOL cap -112 304 R90
WINDOW 0 0 32 VBottom 2
WINDOW 3 32 32 VTop 2
SYMATTR InstName C2
SYMATTR Value 0.1u
SYMBOL voltage -320 352 R0
SYMATTR InstName V2
SYMATTR Value SINE(0 0.35 1k)
SYMBOL res -96 352 R0
SYMATTR InstName R4
SYMATTR Value 470k
SYMBOL MyTubeModel/12AU7 48 320 R0
SYMATTR InstName U1
SYMBOL res 352 352 R0
SYMATTR InstName R5
SYMATTR Value 470k
SYMBOL res 672 192 R0
SYMATTR InstName R6
SYMATTR Value 0.2
SYMBOL res 672 272 R0
SYMATTR InstName R7
SYMATTR Value 0.2
SYMBOL res 496 48 R0
SYMATTR InstName R8
SYMATTR Value 240
SYMBOL res 496 416 R0
SYMATTR InstName R9
SYMATTR Value 240
SYMBOL voltage 1184 128 R0
SYMATTR InstName V4
SYMATTR Value 6
SYMBOL res 816 304 R0
SYMATTR InstName SPEAKER1
SYMATTR Value 8
SYMBOL njf 128 144 R0
SYMATTR InstName J1
SYMATTR Value J211
SYMBOL res 160 352 R0
SYMATTR InstName R3
SYMATTR Value 10k
SYMBOL polcap 1040 144 R0
SYMATTR InstName C3
SYMATTR Value 1000u
SYMBOL polcap 1040 336 R0
SYMATTR InstName C6
SYMATTR Value 1000u
SYMBOL voltage -80 64 R0
SYMATTR InstName V1
SYMATTR Value 30
SYMBOL voltage 1184 320 R0
SYMATTR InstName V3
SYMATTR Value 6
SYMBOL TTA008B 480 240 M180
SYMATTR InstName U4
SYMBOL TTC015B 480 336 R0
SYMATTR InstName U5
SYMBOL TTA008B 656 448 M180
WINDOW 0 43 49 Left 2
SYMATTR InstName U6
SYMBOL TTC015B 656 128 R0
SYMATTR InstName U7
SYMBOL polcap 192 304 R270
WINDOW 0 32 32 VTop 2
WINDOW 3 0 32 VBottom 2
SYMATTR InstName C5
SYMATTR Value 10u
SYMBOL res 256 352 R0
SYMATTR InstName R10
SYMATTR Value 100k
SYMBOL cap 352 272 R90
WINDOW 0 0 32 VBottom 2
WINDOW 3 32 32 VTop 2
SYMATTR InstName C4
SYMATTR Value 0.1u
TEXT -288 184 Left 2 !.tran 5m
