Version 4
SHEET 1 1068 928
WIRE -176 32 -304 32
WIRE 80 32 -176 32
WIRE 208 32 80 32
WIRE 512 32 208 32
WIRE -32 48 -112 48
WIRE -32 64 -32 48
WIRE -112 112 -112 48
WIRE 80 128 80 32
WIRE -32 160 -32 144
WIRE 0 160 -32 160
WIRE 208 160 208 32
WIRE -304 176 -304 32
WIRE 0 192 0 160
WIRE -176 224 -176 32
WIRE -112 224 -112 192
WIRE 80 224 80 208
WIRE 160 224 80 224
WIRE 512 224 512 32
WIRE 80 272 80 224
WIRE 208 272 208 256
WIRE 272 272 208 272
WIRE 352 272 336 272
WIRE 384 272 352 272
WIRE -432 288 -496 288
WIRE -304 288 -304 256
WIRE -304 288 -368 288
WIRE -224 288 -304 288
WIRE -304 320 -304 288
WIRE -112 320 -176 320
WIRE 0 320 0 272
WIRE 0 320 -48 320
WIRE 32 320 0 320
WIRE 208 320 208 272
WIRE -496 352 -496 288
WIRE -176 368 -176 320
WIRE 352 368 352 272
WIRE -32 400 -32 160
WIRE -496 496 -496 432
WIRE -304 496 -304 400
WIRE -304 496 -496 496
WIRE -176 496 -176 448
WIRE -176 496 -304 496
WIRE -32 496 -32 480
WIRE -32 496 -176 496
WIRE 48 496 48 368
WIRE 48 496 -32 496
WIRE 208 496 208 400
WIRE 208 496 48 496
WIRE 352 496 352 448
WIRE 352 496 208 496
WIRE 512 496 512 304
WIRE 512 496 352 496
WIRE 352 528 352 496
FLAG 352 528 0
FLAG 384 272 OUT
IOPIN 384 272 Out
FLAG -496 288 IN
IOPIN -496 288 In
FLAG -112 224 0
SYMBOL KORG/Nutube 80 320 R0
SYMATTR InstName U1
SYMBOL res -192 352 R0
SYMATTR InstName R3
SYMATTR Value 100k
SYMBOL voltage 512 208 R0
SYMATTR InstName V1
SYMATTR Value 18
SYMBOL voltage -112 96 R0
SYMATTR InstName V2
SYMATTR Value 3.3
SYMBOL polcap -112 336 R270
WINDOW 0 32 32 VTop 2
WINDOW 3 0 32 VBottom 2
SYMATTR InstName C3
SYMATTR Value 10u
SYMBOL res -48 48 R0
SYMATTR InstName R7
SYMATTR Value 1k
SYMBOL res -48 384 R0
SYMATTR InstName R8
SYMATTR Value 2.3k
SYMBOL res 64 112 R0
SYMATTR InstName R9
SYMATTR Value 330k
SYMBOL voltage -496 336 R0
SYMATTR InstName V3
SYMATTR Value SINE(0 0.4 1k)
SYMBOL njf -224 224 R0
SYMATTR InstName J1
SYMATTR Value J211
SYMBOL njf 160 160 R0
SYMATTR InstName J2
SYMATTR Value J211
SYMBOL cap -368 272 R90
WINDOW 0 0 32 VBottom 2
WINDOW 3 32 32 VTop 2
SYMATTR InstName C4
SYMATTR Value 0.1u
SYMBOL res -320 304 R0
SYMATTR InstName R1
SYMATTR Value 1Meg
SYMBOL res -320 160 R0
SYMATTR InstName R4
SYMATTR Value 1Meg
SYMBOL res 192 304 R0
SYMATTR InstName R2
SYMATTR Value 10k
SYMBOL res 336 352 R0
SYMATTR InstName R11
SYMATTR Value 100k
SYMBOL res -16 176 R0
SYMATTR InstName R5
SYMATTR Value 33k
SYMBOL polcap 272 288 R270
WINDOW 0 32 32 VTop 2
WINDOW 3 0 32 VBottom 2
SYMATTR InstName C1
SYMATTR Value 10u
TEXT -496 144 Left 2 !.tran 5m
