Version 4
SHEET 1 1004 680
WIRE 336 64 176 64
WIRE 592 64 336 64
WIRE 704 64 592 64
WIRE 176 80 176 64
WIRE 336 112 336 64
WIRE 176 176 176 160
WIRE 288 176 176 176
WIRE 400 208 336 208
WIRE 512 208 464 208
WIRE 176 240 176 176
WIRE 592 256 592 64
WIRE 704 256 704 64
WIRE 464 272 464 208
WIRE -224 288 -256 288
WIRE -112 288 -224 288
WIRE 48 288 -48 288
WIRE 128 288 48 288
WIRE 336 320 336 208
WIRE -224 336 -224 288
WIRE 48 336 48 288
WIRE 144 400 144 336
WIRE 240 400 144 400
WIRE 240 416 240 400
WIRE 240 480 144 480
WIRE -224 512 -224 416
WIRE 48 512 48 416
WIRE 48 512 -224 512
WIRE 144 512 144 480
WIRE 144 512 48 512
WIRE 336 512 336 400
WIRE 336 512 144 512
WIRE 464 512 464 352
WIRE 464 512 336 512
WIRE 592 512 592 320
WIRE 592 512 464 512
WIRE 704 512 704 336
WIRE 704 512 592 512
WIRE 592 528 592 512
FLAG 592 528 0
FLAG 512 208 OUT
IOPIN 512 208 Out
FLAG -256 288 IN
IOPIN -256 288 In
SYMBOL MyTubeModel/E88CC 176 288 R0
SYMATTR InstName U1
SYMBOL voltage 704 240 R0
SYMATTR InstName V1
SYMATTR Value 30
SYMBOL res 160 64 R0
SYMATTR InstName R1
SYMATTR Value 30k
SYMBOL res 128 384 R0
SYMATTR InstName R2
SYMATTR Value 1k
SYMBOL polcap 224 416 R0
SYMATTR InstName C1
SYMATTR Value 470u
SYMBOL cap -48 272 R90
WINDOW 0 0 32 VBottom 2
WINDOW 3 32 32 VTop 2
SYMATTR InstName C3
SYMATTR Value 0.1u
SYMBOL res 448 256 R0
SYMATTR InstName R3
SYMATTR Value 100k
SYMBOL voltage -224 320 R0
WINDOW 3 24 96 Invisible 2
WINDOW 123 24 124 Left 2
WINDOW 39 0 0 Left 0
SYMATTR Value SINE(0 0.3 1k 0 0 0)
SYMATTR Value2 AC 1 0
SYMATTR InstName V2
SYMBOL res 32 320 R0
SYMATTR InstName R4
SYMATTR Value 470k
SYMBOL polcap 576 256 R0
SYMATTR InstName C4
SYMATTR Value 1000u
SYMBOL njf 288 112 R0
SYMATTR InstName J1
SYMATTR Value J211
SYMBOL res 320 304 R0
SYMATTR InstName R5
SYMATTR Value 10k
SYMBOL polcap 400 224 R270
WINDOW 0 32 32 VTop 2
WINDOW 3 0 32 VBottom 2
SYMATTR InstName C2
SYMATTR Value 10u
TEXT -160 152 Left 2 !; .tran 5m\n.ac dec 10 1 10meg
