Version 4
SHEET 1 1068 680
WIRE 208 32 80 32
WIRE 592 32 208 32
WIRE 80 80 80 32
WIRE 208 160 208 32
WIRE 80 224 80 160
WIRE 160 224 80 224
WIRE 80 272 80 224
WIRE 208 288 208 256
WIRE 288 288 208 288
WIRE 400 288 352 288
WIRE 464 288 400 288
WIRE -176 320 -256 320
WIRE -48 320 -112 320
WIRE 32 320 -48 320
WIRE 208 336 208 288
WIRE 400 336 400 288
WIRE -256 368 -256 320
WIRE -48 368 -48 320
WIRE 592 368 592 32
WIRE -256 496 -256 448
WIRE -48 496 -48 448
WIRE -48 496 -256 496
WIRE 48 496 48 368
WIRE 48 496 -48 496
WIRE 208 496 208 416
WIRE 208 496 48 496
WIRE 400 496 400 416
WIRE 400 496 208 496
WIRE 592 496 592 448
WIRE 592 496 400 496
WIRE 592 528 592 496
FLAG 592 528 0
FLAG 464 288 OUT
IOPIN 464 288 Out
FLAG -256 320 IN
IOPIN -256 320 In
SYMBOL KORG/Nutube 80 320 R0
SYMATTR InstName U1
SYMBOL voltage 592 352 R0
SYMATTR InstName V1
SYMATTR Value 60
SYMBOL res -64 352 R0
SYMATTR InstName R8
SYMATTR Value 470k
SYMBOL res 64 64 R0
SYMATTR InstName R9
SYMATTR Value 330k
SYMBOL res 384 320 R0
SYMATTR InstName R10
SYMATTR Value 100k
SYMBOL voltage -256 352 R0
SYMATTR InstName V3
SYMATTR Value SINE(0 1 1k)
SYMBOL njf 160 160 R0
SYMATTR InstName J2
SYMATTR Value J211
SYMBOL res 192 320 R0
SYMATTR InstName R2
SYMATTR Value 10k
SYMBOL polcap 288 304 R270
WINDOW 0 32 32 VTop 2
WINDOW 3 0 32 VBottom 2
SYMATTR InstName C1
SYMATTR Value 10u
SYMBOL cap -112 304 R90
WINDOW 0 0 32 VBottom 2
WINDOW 3 32 32 VTop 2
SYMATTR InstName C2
SYMATTR Value 0.1u
TEXT -80 168 Left 2 !.tran 5m
