Version 4
SHEET 1 1068 680
WIRE -32 32 -128 32
WIRE 208 32 80 32
WIRE 592 32 208 32
WIRE -32 64 -32 32
WIRE -128 96 -128 32
WIRE 80 128 80 32
WIRE 208 160 208 32
WIRE -32 176 -32 144
WIRE 0 176 -32 176
WIRE -128 224 -128 176
WIRE 80 224 80 208
WIRE 160 224 80 224
WIRE 80 272 80 224
WIRE 208 288 208 256
WIRE 256 288 208 288
WIRE 336 288 320 288
WIRE 448 288 336 288
WIRE 512 288 448 288
WIRE -176 320 -240 320
WIRE 0 320 0 256
WIRE 0 320 -112 320
WIRE 32 320 0 320
WIRE 208 320 208 288
WIRE 336 336 336 288
WIRE 448 336 448 288
WIRE -240 368 -240 320
WIRE 592 368 592 32
WIRE -32 400 -32 176
WIRE -240 496 -240 448
WIRE -32 496 -32 480
WIRE -32 496 -240 496
WIRE 48 496 48 368
WIRE 48 496 -32 496
WIRE 208 496 208 400
WIRE 208 496 48 496
WIRE 336 496 336 416
WIRE 336 496 208 496
WIRE 448 496 448 416
WIRE 448 496 336 496
WIRE 592 496 592 448
WIRE 592 496 448 496
WIRE 592 528 592 496
FLAG 592 528 0
FLAG 512 288 OUT
IOPIN 512 288 Out
FLAG -240 320 IN
IOPIN -240 320 In
FLAG -128 224 0
SYMBOL KORG/Nutube 80 320 R0
SYMATTR InstName U1
SYMBOL voltage 592 352 R0
SYMATTR InstName V1
SYMATTR Value 30
SYMBOL voltage -128 80 R0
SYMATTR InstName V2
SYMATTR Value 3.3
SYMBOL res -48 48 R0
SYMATTR InstName R7
SYMATTR Value 1k
SYMBOL res -48 384 R0
SYMATTR InstName R8
SYMATTR Value 2.3k
SYMBOL res 64 112 R0
SYMATTR InstName R9
SYMATTR Value 330k
SYMBOL res 320 320 R0
SYMATTR InstName R10
SYMATTR Value 100k
SYMBOL voltage -240 352 R0
SYMATTR InstName V3
SYMATTR Value SINE(0 0.6 1k)
SYMBOL njf 160 160 R0
SYMATTR InstName J2
SYMATTR Value J211
SYMBOL res 192 304 R0
SYMATTR InstName R2
SYMATTR Value 10k
SYMBOL polcap 256 304 R270
WINDOW 0 32 32 VTop 2
WINDOW 3 0 32 VBottom 2
SYMATTR InstName C2
SYMATTR Value 10u
SYMBOL res -16 160 R0
SYMATTR InstName R1
SYMATTR Value 33k
SYMBOL polcap -112 336 M270
WINDOW 0 32 32 VTop 2
WINDOW 3 0 32 VBottom 2
SYMATTR InstName C1
SYMATTR Value 10u
SYMBOL res 432 320 R0
SYMATTR InstName SPEAKER
SYMATTR Value 8
TEXT -288 224 Left 2 !.tran 5m
