Version 4
SHEET 1 892 680
WIRE -880 -368 -1104 -368
WIRE -864 -368 -880 -368
WIRE -416 -336 -448 -336
WIRE -320 -336 -416 -336
WIRE -208 -336 -320 -336
WIRE -48 -336 -208 -336
WIRE 96 -336 -48 -336
WIRE 128 -336 96 -336
WIRE -1040 -288 -1104 -288
WIRE -928 -288 -960 -288
WIRE -208 -288 -208 -336
WIRE -1104 -272 -1104 -288
WIRE -48 -272 -48 -336
WIRE 96 -272 96 -336
WIRE -416 -208 -416 -336
WIRE -320 -208 -320 -336
WIRE -1104 -176 -1104 -192
WIRE -1104 -176 -1344 -176
WIRE -880 -176 -880 -192
WIRE -752 -176 -880 -176
WIRE -720 -176 -752 -176
WIRE -1104 -160 -1104 -176
WIRE -880 -160 -880 -176
WIRE -208 -160 -208 -208
WIRE -208 -160 -240 -160
WIRE -96 -160 -96 -240
WIRE -96 -160 -208 -160
WIRE -48 -160 -48 -208
WIRE 96 -160 96 -208
WIRE 96 -160 -48 -160
WIRE 128 -160 96 -160
WIRE -1344 -144 -1344 -176
WIRE -752 -128 -752 -176
WIRE -240 -128 -240 -160
WIRE -208 -112 -208 -160
WIRE -48 -112 -48 -160
WIRE 96 -112 96 -160
WIRE -96 -80 -96 -160
WIRE -1104 -64 -1104 -80
WIRE -1040 -64 -1104 -64
WIRE -928 -64 -960 -64
WIRE -1344 16 -1344 -64
WIRE -1328 16 -1344 16
WIRE -880 16 -1104 16
WIRE -864 16 -880 16
WIRE -752 16 -752 -48
WIRE -736 16 -752 16
WIRE -416 16 -416 -128
WIRE -416 16 -448 16
WIRE -320 16 -320 -144
WIRE -320 16 -416 16
WIRE -208 16 -208 -32
WIRE -208 16 -320 16
WIRE -48 16 -48 -48
WIRE -48 16 -208 16
WIRE 96 16 96 -48
WIRE 96 16 -48 16
WIRE 128 16 96 16
FLAG -240 -128 0
FLAG 128 -336 OUT+
IOPIN 128 -336 Out
FLAG 128 16 OUT-
IOPIN 128 16 Out
FLAG 128 -160 OUT0
IOPIN 128 -160 Out
FLAG -448 -336 V+
FLAG -448 16 V-
FLAG -864 -368 OUT+
IOPIN -864 -368 In
FLAG -864 16 OUT-
IOPIN -864 16 In
FLAG -1328 16 OUT0
IOPIN -1328 16 In
FLAG -736 16 OUT0
IOPIN -736 16 In
FLAG -720 -176 OUT
IOPIN -720 -176 Out
FLAG -1344 -176 IN
IOPIN -1344 -176 In
SYMBOL voltage -416 -224 R0
SYMATTR InstName V1
SYMATTR Value 12
SYMBOL res -224 -304 R0
SYMATTR InstName R1
SYMATTR Value 4.7k
SYMBOL res -224 -128 R0
SYMATTR InstName R2
SYMATTR Value 4.7k
SYMBOL nmos -928 -368 R0
SYMATTR InstName M1
SYMATTR Value 2SK1056C
SYMBOL pmos -928 16 M180
SYMATTR InstName M2
SYMATTR Value 2SJ162C
SYMBOL res -896 -288 R0
SYMATTR InstName R5
SYMATTR Value 0.2
SYMBOL res -896 -176 R0
SYMATTR InstName R6
SYMATTR Value 0.2
SYMBOL res -768 -144 R0
SYMATTR InstName SPEAKER
SYMATTR Value 8
SYMBOL res -1120 -288 R0
SYMATTR InstName R9
SYMATTR Value 3k
SYMBOL res -1120 -176 R0
SYMATTR InstName R10
SYMATTR Value 3k
SYMBOL res -1120 -80 R0
SYMATTR InstName R11
SYMATTR Value 20k
SYMBOL res -1120 -384 R0
SYMATTR InstName R12
SYMATTR Value 20k
SYMBOL res -944 -304 R90
WINDOW 0 0 56 VBottom 2
WINDOW 3 32 56 VTop 2
SYMATTR InstName R13
SYMATTR Value 220
SYMBOL res -944 -80 R90
WINDOW 0 0 56 VBottom 2
WINDOW 3 32 56 VTop 2
SYMATTR InstName R14
SYMATTR Value 220
SYMBOL voltage -1344 -160 R0
WINDOW 3 24 38 Left 2
SYMATTR Value SINE(0 5 1k 0 0)
SYMATTR InstName V2
SYMBOL polcap 80 -272 R0
SYMATTR InstName C4
SYMATTR Value 100u
SYMBOL polcap 80 -112 R0
SYMATTR InstName C5
SYMATTR Value 100u
SYMBOL polcap -336 -208 R0
SYMATTR InstName C1
SYMATTR Value 470u
SYMBOL TOSHIBA/2SC5200_PSpice -80 -256 R0
SYMATTR InstName U3
SYMBOL TOSHIBA/2SA1943_PSpice -80 -64 M180
SYMATTR InstName U4
TEXT -1344 -296 Left 2 !.tran 10m
