Version 4
SHEET 1 1060 680
WIRE 160 80 64 80
WIRE 256 80 160 80
WIRE 384 80 256 80
WIRE 160 112 160 80
WIRE 384 160 384 80
WIRE 336 192 160 192
WIRE 160 240 160 192
WIRE 384 256 384 224
WIRE 112 272 64 272
WIRE 160 320 160 304
WIRE 288 320 160 320
WIRE 64 336 64 272
WIRE 64 336 -48 336
WIRE 544 336 384 336
WIRE 592 336 544 336
WIRE 256 352 256 80
WIRE 256 352 160 352
WIRE 160 368 160 352
WIRE 544 368 544 336
WIRE -48 400 -48 336
WIRE 64 400 64 336
WIRE 112 400 64 400
WIRE 384 448 384 416
WIRE 160 480 160 432
WIRE 336 480 160 480
WIRE 544 480 544 448
WIRE 160 592 160 560
WIRE 160 592 64 592
WIRE 288 592 288 320
WIRE 288 592 160 592
WIRE 384 592 384 512
WIRE 384 592 288 592
FLAG 64 80 +V
FLAG 64 592 -V
FLAG -48 480 0
FLAG -96 240 0
FLAG 0 240 0
FLAG -96 160 +V
FLAG 0 160 -V
FLAG 592 336 OUT
IOPIN 592 336 Out
FLAG -48 336 IN
IOPIN -48 336 In
FLAG 544 480 0
SYMBOL res 368 240 R0
SYMATTR InstName R1
SYMATTR Value 0.2
SYMBOL res 368 320 R0
SYMATTR InstName R2
SYMATTR Value 0.2
SYMBOL res 144 96 R0
SYMATTR InstName R3
SYMATTR Value 240
SYMBOL res 144 464 R0
SYMATTR InstName R4
SYMATTR Value 240
SYMBOL voltage -48 384 R0
SYMATTR InstName V1
SYMATTR Value SINE(0 4 1k)
SYMBOL voltage -96 144 R0
SYMATTR InstName V2
SYMATTR Value 6
SYMBOL voltage 0 144 R0
SYMATTR InstName V3
SYMATTR Value -6
SYMBOL res 528 352 R0
SYMATTR InstName SPEAKER
SYMATTR Value 8
SYMBOL TOSHIBA/TTC015B 352 176 R0
SYMATTR InstName U4
SYMBOL TOSHIBA/TTA008B 352 496 M180
SYMATTR InstName U3
SYMBOL TOSHIBA/TTA008B 128 288 M180
SYMATTR InstName U1
SYMBOL TOSHIBA/TTC015B 128 384 R0
SYMATTR InstName U2
TEXT -80 552 Left 2 !.tran 5m
