Version 4
SHEET 1 2568 680
WIRE 160 80 64 80
WIRE 256 80 160 80
WIRE 384 80 256 80
WIRE 528 80 384 80
WIRE 672 80 528 80
WIRE 160 112 160 80
WIRE 464 128 320 128
WIRE 608 128 464 128
WIRE 384 144 384 80
WIRE 528 144 528 80
WIRE 672 144 672 80
WIRE 320 192 320 128
WIRE 320 192 160 192
WIRE 464 192 464 128
WIRE 608 192 608 128
WIRE 160 224 160 192
WIRE 384 256 384 240
WIRE 528 256 528 240
WIRE 672 256 672 240
WIRE 96 272 64 272
WIRE 288 320 160 320
WIRE 64 336 64 272
WIRE 64 336 -80 336
WIRE 528 336 384 336
WIRE 672 336 528 336
WIRE 800 336 672 336
WIRE 832 336 800 336
WIRE 256 352 256 80
WIRE 256 352 160 352
WIRE -80 368 -80 336
WIRE 800 368 800 336
WIRE 64 400 64 336
WIRE 96 400 64 400
WIRE 384 432 384 416
WIRE 528 432 528 416
WIRE 672 432 672 416
WIRE -80 480 -80 448
WIRE 160 480 160 448
WIRE 320 480 160 480
WIRE 800 480 800 448
WIRE 320 544 320 480
WIRE 464 544 464 480
WIRE 464 544 320 544
WIRE 608 544 608 480
WIRE 608 544 464 544
WIRE 160 592 160 560
WIRE 160 592 64 592
WIRE 288 592 288 320
WIRE 288 592 160 592
WIRE 384 592 384 528
WIRE 384 592 288 592
WIRE 528 592 528 528
WIRE 528 592 384 592
WIRE 672 592 672 528
WIRE 672 592 528 592
FLAG 64 80 +V
FLAG 64 592 -V
FLAG -160 208 0
FLAG -64 208 0
FLAG -160 128 +V
FLAG -64 128 -V
FLAG 832 336 OUT
IOPIN 832 336 Out
FLAG 800 480 0
FLAG -80 480 0
FLAG -80 336 IN
IOPIN -80 336 In
SYMBOL npn 96 352 R0
SYMATTR InstName Q2
SYMATTR Value 2N3904
SYMBOL pnp 96 320 M180
WINDOW 0 60 32 Left 2
WINDOW 3 60 69 Left 2
SYMATTR InstName Q4
SYMATTR Value 2N3906
SYMBOL res 368 240 R0
SYMATTR InstName R1
SYMATTR Value 0.2
SYMBOL res 368 320 R0
SYMATTR InstName R2
SYMATTR Value 0.2
SYMBOL res 144 96 R0
SYMATTR InstName R3
SYMATTR Value 250
SYMBOL res 144 464 R0
SYMATTR InstName R4
SYMATTR Value 250
SYMBOL voltage -160 112 R0
SYMATTR InstName V2
SYMATTR Value 6
SYMBOL voltage -64 112 R0
SYMATTR InstName V3
SYMATTR Value -6
SYMBOL pnp 320 528 M180
WINDOW 0 60 32 Left 2
WINDOW 3 60 69 Left 2
SYMATTR InstName Q5
SYMATTR Value 2N3906
SYMBOL npn 320 144 R0
SYMATTR InstName Q6
SYMATTR Value 2N3904
SYMBOL res 784 352 R0
SYMATTR InstName SPEAKER
SYMATTR Value 8
SYMBOL voltage -80 352 R0
WINDOW 3 16 102 Left 2
WINDOW 123 24 38 Left 2
WINDOW 39 0 0 Left 0
SYMATTR Value SINE(0 4 1k)
SYMATTR InstName V1
SYMBOL res 512 240 R0
SYMATTR InstName R9
SYMATTR Value 0.2
SYMBOL res 512 320 R0
SYMATTR InstName R10
SYMATTR Value 0.2
SYMBOL pnp 464 528 M180
WINDOW 0 60 32 Left 2
WINDOW 3 60 69 Left 2
SYMATTR InstName Q1
SYMATTR Value 2N3906
SYMBOL npn 464 144 R0
SYMATTR InstName Q3
SYMATTR Value 2N3904
SYMBOL res 656 240 R0
SYMATTR InstName R11
SYMATTR Value 0.2
SYMBOL res 656 320 R0
SYMATTR InstName R12
SYMATTR Value 0.2
SYMBOL npn 608 144 R0
SYMATTR InstName Q7
SYMATTR Value 2N3904
SYMBOL pnp 608 528 M180
WINDOW 0 60 32 Left 2
WINDOW 3 60 69 Left 2
SYMATTR InstName Q8
SYMATTR Value 2N3906
TEXT -96 536 Left 2 !.tran 5m
