Version 4
SHEET 1 1008 680
WIRE -176 176 -272 176
WIRE 160 176 -176 176
WIRE 384 176 160 176
WIRE 160 192 160 176
WIRE -272 208 -272 176
WIRE -176 224 -176 176
WIRE 384 272 384 176
WIRE 32 304 -48 304
WIRE 160 304 160 272
WIRE 160 304 96 304
WIRE 336 304 160 304
WIRE -272 336 -272 288
WIRE -176 336 -176 288
WIRE -48 336 -48 304
WIRE 384 368 384 336
WIRE 432 368 384 368
WIRE 528 368 496 368
WIRE 160 384 160 304
WIRE 384 400 384 368
WIRE -48 512 -48 416
WIRE 160 512 160 464
WIRE 384 512 384 480
FLAG -48 512 0
FLAG -272 336 0
FLAG 528 368 OUT
IOPIN 528 368 Out
FLAG -48 304 IN
IOPIN -48 304 In
FLAG 384 512 0
FLAG 160 512 0
FLAG -176 336 0
SYMBOL res 368 384 R0
SYMATTR InstName R1
SYMATTR Value 1k
SYMBOL res 144 176 R0
SYMATTR InstName R3
SYMATTR Value 10k
SYMBOL voltage -48 320 R0
SYMATTR InstName V1
SYMATTR Value SINE(0 4 1k)
SYMBOL voltage -272 192 R0
SYMATTR InstName V2
SYMATTR Value 12
SYMBOL TOSHIBA/2SC5200_PSpice 352 288 R0
SYMATTR InstName U2
SYMBOL res 144 368 R0
SYMATTR InstName R2
SYMATTR Value 10k
SYMBOL polcap 96 288 R90
WINDOW 0 0 32 VBottom 2
WINDOW 3 32 32 VTop 2
SYMATTR InstName C2
SYMATTR Value 10u
SYMBOL polcap 432 384 R270
WINDOW 0 32 32 VTop 2
WINDOW 3 0 32 VBottom 2
SYMATTR InstName C3
SYMATTR Value 10u
SYMBOL polcap -192 224 R0
SYMATTR InstName C4
SYMATTR Value 10u
TEXT -80 552 Left 2 !.tran 5m
