Version 4
SHEET 1 892 680
WIRE -816 -352 -1040 -352
WIRE -800 -352 -816 -352
WIRE -336 -320 -368 -320
WIRE -240 -320 -336 -320
WIRE -128 -320 -240 -320
WIRE 368 -320 -128 -320
WIRE 512 -320 368 -320
WIRE 544 -320 512 -320
WIRE 112 -304 -16 -304
WIRE -976 -272 -1040 -272
WIRE -864 -272 -896 -272
WIRE -128 -272 -128 -320
WIRE -1040 -256 -1040 -272
WIRE 48 -256 48 -272
WIRE 368 -256 368 -320
WIRE 512 -256 512 -320
WIRE -16 -240 -16 -304
WIRE 16 -240 -16 -240
WIRE 112 -224 112 -304
WIRE 112 -224 80 -224
WIRE 192 -224 112 -224
WIRE 288 -224 272 -224
WIRE 16 -208 -48 -208
WIRE -336 -192 -336 -320
WIRE -240 -192 -240 -320
WIRE 48 -176 48 -192
WIRE -1040 -160 -1040 -176
WIRE -1040 -160 -1280 -160
WIRE -816 -160 -816 -176
WIRE -656 -160 -816 -160
WIRE -624 -160 -656 -160
WIRE -1040 -144 -1040 -160
WIRE -816 -144 -816 -160
WIRE -128 -144 -128 -192
WIRE -128 -144 -160 -144
WIRE -48 -144 -48 -208
WIRE -48 -144 -128 -144
WIRE 112 -144 -16 -144
WIRE 288 -144 288 -224
WIRE 320 -144 320 -224
WIRE 320 -144 288 -144
WIRE 368 -144 368 -192
WIRE 512 -144 512 -192
WIRE 512 -144 368 -144
WIRE 544 -144 512 -144
WIRE -1280 -128 -1280 -160
WIRE -656 -112 -656 -160
WIRE -160 -112 -160 -144
WIRE -128 -96 -128 -144
WIRE 48 -96 48 -112
WIRE 368 -96 368 -144
WIRE 512 -96 512 -144
WIRE -16 -80 -16 -144
WIRE 16 -80 -16 -80
WIRE 112 -64 112 -144
WIRE 112 -64 80 -64
WIRE 192 -64 112 -64
WIRE 288 -64 288 -144
WIRE 288 -64 272 -64
WIRE 320 -64 320 -144
WIRE -1040 -48 -1040 -64
WIRE -976 -48 -1040 -48
WIRE -864 -48 -896 -48
WIRE -48 -48 -48 -144
WIRE 16 -48 -48 -48
WIRE 48 -16 48 -32
WIRE -1280 32 -1280 -48
WIRE -1264 32 -1280 32
WIRE -816 32 -1040 32
WIRE -800 32 -816 32
WIRE -656 32 -656 -32
WIRE -640 32 -656 32
WIRE -336 32 -336 -112
WIRE -336 32 -368 32
WIRE -240 32 -240 -128
WIRE -240 32 -336 32
WIRE -128 32 -128 -16
WIRE -128 32 -240 32
WIRE 368 32 368 -32
WIRE 368 32 -128 32
WIRE 512 32 512 -32
WIRE 512 32 368 32
WIRE 544 32 512 32
FLAG -160 -112 0
FLAG 544 -320 OUT+
IOPIN 544 -320 Out
FLAG 544 32 OUT-
IOPIN 544 32 Out
FLAG 544 -144 OUT0
IOPIN 544 -144 Out
FLAG -368 -320 V+
FLAG -368 32 V-
FLAG 48 -272 V+
FLAG 48 -112 V+
FLAG 48 -176 V-
FLAG 48 -16 V-
FLAG -800 -352 OUT+
IOPIN -800 -352 In
FLAG -800 32 OUT-
IOPIN -800 32 In
FLAG -1264 32 OUT0
IOPIN -1264 32 In
FLAG -640 32 OUT0
IOPIN -640 32 In
FLAG -624 -160 OUT
IOPIN -624 -160 Out
FLAG -1280 -160 IN
IOPIN -1280 -160 In
SYMBOL voltage -336 -208 R0
SYMATTR InstName V1
SYMATTR Value 12
SYMBOL res -144 -288 R0
SYMATTR InstName R1
SYMATTR Value 4.7k
SYMBOL res -144 -112 R0
SYMATTR InstName R2
SYMATTR Value 4.7k
SYMBOL res 288 -240 R90
WINDOW 0 0 56 VBottom 2
WINDOW 3 32 56 VTop 2
SYMATTR InstName R3
SYMATTR Value 0.47
SYMBOL res 288 -80 R90
WINDOW 0 0 56 VBottom 2
WINDOW 3 32 56 VTop 2
SYMATTR InstName R4
SYMATTR Value 0.47
SYMBOL NJR_CMOS/nju77902single 48 -288 R0
SYMATTR InstName U1
SYMBOL NJR_CMOS/nju77902single 48 -128 R0
SYMATTR InstName U2
SYMBOL nmos -864 -352 R0
SYMATTR InstName M1
SYMATTR Value 2SK1056C
SYMBOL pmos -864 32 M180
SYMATTR InstName M2
SYMATTR Value 2SJ162C
SYMBOL res -832 -272 R0
SYMATTR InstName R5
SYMATTR Value 0.2
SYMBOL res -832 -160 R0
SYMATTR InstName R6
SYMATTR Value 0.2
SYMBOL res -672 -128 R0
SYMATTR InstName SPEAKER
SYMATTR Value 8
SYMBOL res -1056 -272 R0
SYMATTR InstName R9
SYMATTR Value 3k
SYMBOL res -1056 -160 R0
SYMATTR InstName R10
SYMATTR Value 3k
SYMBOL res -1056 -64 R0
SYMATTR InstName R11
SYMATTR Value 20k
SYMBOL res -1056 -368 R0
SYMATTR InstName R12
SYMATTR Value 20k
SYMBOL res -880 -288 R90
WINDOW 0 0 56 VBottom 2
WINDOW 3 32 56 VTop 2
SYMATTR InstName R13
SYMATTR Value 220
SYMBOL res -880 -64 R90
WINDOW 0 0 56 VBottom 2
WINDOW 3 32 56 VTop 2
SYMATTR InstName R14
SYMATTR Value 220
SYMBOL voltage -1280 -144 R0
WINDOW 3 24 38 Left 2
SYMATTR Value SINE(0 5 1k 0 0)
SYMATTR InstName V2
SYMBOL polcap 496 -256 R0
SYMATTR InstName C4
SYMATTR Value 100u
SYMBOL polcap 496 -96 R0
SYMATTR InstName C5
SYMATTR Value 100u
SYMBOL polcap -256 -192 R0
SYMATTR InstName C1
SYMATTR Value 470u
SYMBOL TOSHIBA/2SC5200_PSpice 336 -240 R0
SYMATTR InstName U3
SYMBOL TOSHIBA/2SA1943_PSpice 336 -48 M180
SYMATTR InstName U4
TEXT -1280 -280 Left 2 !.tran 10m\n;.ac dec 10 1 1meg
