Version 4
SHEET 1 880 680
WIRE 400 208 32 208
WIRE 32 240 32 208
WIRE 400 240 400 208
WIRE 352 288 224 288
WIRE 224 352 224 288
WIRE 32 496 32 320
WIRE 224 496 224 432
WIRE 368 496 368 336
FLAG 368 496 0
FLAG 224 496 0
FLAG 32 496 0
SYMBOL voltage 32 224 R0
SYMATTR InstName V1
SYMATTR Value 0
SYMBOL voltage 224 336 R0
SYMATTR InstName V2
SYMATTR Value {VG}
SYMBOL MyTubeModel\\6J1 400 288 R0
SYMATTR InstName U1
TEXT -24 560 Left 2 !.step param VG -1 0 0.1\n.dc V1 0 30 0.1
